src/test/resources/bpafiles/fj/2013年年大方式.dat
(POWERFLOW,CASEID=2013nd,PROJECT=2013nd)
/SOL_ITER,DECOUPLED=4,NEWTON=20,OPITM=0\
/P_OUTPUT_LIST,ZONES=ALL\
/RPT_SORT=ZONE\  
/OVERLOAD_RPT,TX=70,LINE=70\
/P_ANALYSIS_RPT,LEVEL=1\
/ANALYSIS_SELECT\
>PAPER,ZONES=0,1,2,3,4,5,6,7,8,9<
>UVOV<
>LINELOAD<
>TRANLOAD<
/NEW_BASE,FILE=2013nd.BSE\
/PF_MAP,FILE=2013nd.MAP\
/NETWORK_DATA\
   
AC 福建      闽水口_113.80         1  2  3  4  5  6  7  8  9  0
AC 华东      浙北三_1 27.          H  JX HZ N  S  J  Q  L  T  W  ZS DT C                      
AC+华东                            SH SD SQ SJ SL SX SY SI SB SC SM S3 SA SN ST SG            
AC+华东                            JS J1 J2 J3 J4 J5 J6 J7 J8 J9 JB JH JJ JL JM JP JT JW JY XS
AC+华东                            HB SZ FY BZ BB HN CZ HF LA CH AQ MA WH TL GC XC HS LV CN CS
AC+华东                            GD HD
I  福建       华东        0.      


........................................
.
.               福建机组
.
........................................                                                                                                                                                                                                                                                                                        
.
....................
.  核电与抽蓄                                                                                                                                                                                                                                                                                                       
....................
.
.2012年底新增晴川（宁德）核电，投产一台机；暂按2013年8月晴川（宁德）核电投产第二台机考虑
BQ FND闽晴川_126.00 64.  20.          11501000.557.1142.01.0                                        902430
BQ FND闽晴川_226.00 64.  20.          11501000.557.1142.01.0                                        902440
.暂按2013年8月西苑抽蓄投产两台机考虑
BQ FPT闽西抽_118.00 12.  8.           330.300. 145.  -50.1.0                                        902630
B @FPT闽西抽_218.00 12.  8
.           330.000. 145.  -50.1.0                                        902630
.
....................
.     火电                                                                                                                                                                                                                                                                                                       
....................
.
. 宁德
.
BQ FND闽大唐_122.00 30.  10.          660.660. 300. -50. 1.00                                       901160
BQ FND闽大唐_222.00 30.  10.          660.660. 300. -50. 1.00                                       901170
BQ FND闽大唐_320.00 30.  10.          600.600. 300. -50. 1.00                                       901180
BQ FND闽大唐_420.00 30.  10.          600.600. 300. -50. 1.00                                       901190
.
. 福州
.
BQ FFZ闽可门_120.00 30.  10.          636.600. 300. -50. 1.00                                       901330
BQ FFZ闽可门_220.00 30.  10.          644.600. 300. -50. 1.00                                       901340
BQ FFZ闽可门_320.00 30.  10.          600.600. 300. -50. 1.00                                       901350
BQ FFZ闽可门_420.00 30.  10.          600.600. 300. -50. 1.00                                       901360

BQ FFZ闽华能_122.00 18.  9.           350.350. 170. -20. 1.0                                        910130
BQ FFZ闽华能_222.00 18.  9.           350.350. 170. -20. 1.0                                        910140
BQ FFZ闽华能_321.00 15.  7.           350.350. 170. -20. 1.0                                        910150
BQ FFZ闽华能_421.00 15.  7.           350.350. 170. -20. 1.0                                        910160

BQ FFZ闽华能_520.00 30.  10.          660.660. 250. -50. 1.00                                       910170
BQ FFZ闽华能_620.00 30.  10.          660.660. 250. -50. 1.00                                       910180

BQ FFZ闽江阴_120.00 30.  10.          652.650. 250. -50. 1.00                                       901530
BQ FFZ闽江阴_220.00 30.  10.          600.600. 250. -50. 1.00                                       901540
.
. 莆田
.
BQ FPT闽湄电_124.00 20.               393.380. 170. -50. 1.0                                        920130
BQ FPT闽湄电_224.00 20.               393.380. 170. -50. 1.0                                        920140

BQ FPT闽前云_120.00 18.  6.           410.380. 135. 0.   1.0                                        901730
BQ FPT闽前云_220.00 18.  6.           410.380. 135. 0.   1.0                                        901740
BQ FPT闽前云_320.00 18.  6.           410.380. 135. 0.   1.0                                        901750                                                                                                                                                                                                  
BQ FPT闽前云_420.00 18.  6.           410.380. 135. 0.   1.0                                        901760   
.
. 泉州
.
BQ FQZ闽南埔_120.00 15.  9.           300.300. 150. -40. 1.00                                       931830
BQ FQZ闽南埔_220.00 15.  9.           300.300. 150. -40. 1.00                                       931840
. 南埔二厂
BQ FQZ闽南埔_320.00 30.  10.          670.660. 250. -50. 1.00                                       931940
BQ FQZ闽南埔_420.00 30.  10.          670.660. 250. -50. 1.00                                       931950
. 旗龙（漳平二厂）
BQ FLY闽漳平_520.00 15.  9.           300.300. 150. -40. 1.00                                       902270
BQ FLY闽漳平_620.00 15.  9.           300.300. 150. -40. 1.00                                       902280
                                                                                                                                                                                                
BQ FQZ闽石圳_119.00 18.  6.           398.380. 135. 0.   1.00                                       932830
BQ FQZ闽石圳_219.00 18.  6.           398.380. 135. 0.   1.00                                       932840
BQ FQZ闽石圳_319.00 18.  6.           398.380. 135. 0.   1.00                                       932850                                                                                                                                                                                                  
BQ FQZ闽石圳_419.00 18.  6.           398.380. 135. 0.   1.00                                       932860                                                                                                                                                                                                  

BQ FQZ闽鸿山_122.00 30.  10.          600.600. 300. -50. 1.00                                       902730
BQ FQZ闽鸿山_222.00 30.  10.          600.600. 300. -50. 1.00                                       902740
.
. 厦门
.
BQ FXM闽嵩屿_120.00 15.  9.           300.300. 150. -40. 1.00                                       940830
BQ FXM闽嵩屿_220.00 15.  9.           300.300. 150. -40. 1.00                                       940840
BQ FXM闽嵩屿_320.00 15.  9.           300.300. 150. -40. 1.00                                       940850
BQ FXM闽嵩屿_420.00 15.  9.           300.300. 150. -40. 1.00                                       940860

BQ FXM闽新店_121.00 18.  6.           403.380. 135. 0.   1.0                                        941630
BQ FXM闽新店_221.00 18.  6.           403.380. 135. 0    1.0                                        941640
.
. 漳州
.
BQ FZZ闽后石_123.00 30.  10.          600.600. 250. -50. 1.00                                       900630
BQ FZZ闽后石_223.00 30.  10.          600.600. 250. -50. 1.00                                       900640
BQ FZZ闽后石_323.00 30.  10.          600.600. 250. -50. 1.00                                       900650
BQ FZZ闽后石_423.00 30.  10.          600.600. 250. -50. 1.00                                       900660
BQ FZZ闽后石_523.00 30.  10.          600.600. 250. -50. 1.00                                       900670
BQ FZZ闽后石_623.00 30.  10.          600.600. 250. -50. 1.00                                       900680
BQ FZZ闽后石_719.00 30.  10.          600.600. 250. -50. 1.00                                       900690                                                                                                                                                                                                  
.
. 龙岩
.
BQ FLY闽坑口_113.80 10.  6.           135.135. 70.  -20. 1.0                                        960730
BQ FLY闽坑口_213.80 10.  6.           140.135. 70.  -20. 1.0                                        960740
BQ FLY闽坑口_313.80 10.  6.           135.135. 70.  -20. 1.0                                        960750
BQ FLY闽坑口_413.80 10.  6.           135.135. 70.  -20. 1.0                                        960760
           
BQ FLY闽坑口_520.00 15.  9.           300.300. 150. -40. 1.00                                       960770
BQ FLY闽坑口_620.00 15.  9.           300.300. 150. -40. 1.00                                       960780
.
. 三明
.
.B @FSM闽永安_1 6.30
.   2.   1.         25.  0.    0.    0.1.0                                        970650                                                                                                                                                                                                  
.B @FSM闽永安_2 6.30
.   2.   1.         25.  0.    0.    0.1.0                                        970660                                                                                                                                                                                                  

BQ FSM闽永安_720.00  15.   9.         300.300.  150. -40.1.00                                       902330
BQ FSM闽永安_820.00  15.   9.         300.300.  150. -40.1.00                                       902340
.
. 南平
.
B @FNP闽邵武_113.80  
.10.   6.         125. 0.    0.  -40.1.0                                        980621                                                                                                                                                                                                  
B @FNP闽邵武_213.80
.10.   6.         125. 0.    0.  -40.1.0                                        980622                                                                                                                                                                                                  
.
....................
.     水电                                                                                                                                                                                                                                                                                                       
....................
.
. 宁德
.
BQ FND闽芹山_110.50                   35. 35.  10.  0.   1.00                                       990231
B @FND闽芹山_210.50
.                   35. 35.  10.  0.   1.00                                       990232                                                                                                                                                                                                  

BQ FND闽周宁_115.80                   125.125. 60.  -20. 1.00                                       990430
B @FND闽周宁_215.80
.                   125.125. 60.  -20. 1.00                                       990440

BQ FND闽丰源_110.50                   40. 40.  12.5 0.   1.00                                       990631
B @FND闽丰源_210.50
.                   40. 40.  12.5 0.   1.00                                       990632

B @FND闽洪口_113.80
.                   100.0.   60.  -25. 1.00    
BQ FND闽洪口_213.80                   100.100. 60.  -25. 1.00                                       990940

B @FND闽一级_1 6.30
.                   8.  0.   2.5       1.0     
B @FND闽一级_2 6.30
.                   8.  0.   2.5       1.0                                        912842                                                                                                                                                                                                  
B @FND闽一级_3 6.30
.                   12.50.   2.5       1.0     
B @FND闽一级_4 6.30
.                   12.50.   2.5       1.0                                        912852                                                                                                                                                                                                  
B @FND闽一级_5 6.30
.                   12.50.   2.5       1.0                                        912861                                                                                                                                                                                                  
B @FND闽一级_6 6.30
.                   12.50.   2.5       1.0                                        912862                                                                                                                                                                                                  
BQ FND闽二级_110.50                   65. 65.  30.  0.   1.0                                        910340
BQ FND闽二级_210.50                   65. 65.  30.  0.   1.0                                        910350
B @FND闽三级_1 6.30
.                   21. 0.   5.        1.0     
B @FND闽三级_2 6.30
.                   21. 0.   5.        1.0                                        912942                                                                                                                                                                                                  
B @FND闽四级_1 6.30
.                   21. 0.   5.        1.0                                        913040                                                                                                                                                                                                  
B @FND闽四级_2 6.30
.                   21. 0.   5.        1.0                                        913050                                                                                                                                                                                                  
.
. 福州
.
BQ FFZ闽水口_113.80                   200.200. 100. -20. 1.0                                        900150
BQ FFZ闽水口_213.80                   200.200. 100. -20. 1.0                                        900160
BQ FFZ闽水口_313.80                   200.200. 100. -20. 1.0                                        900170
BQ FFZ闽水口_413.80                   200.200. 100. -20. 1.0                                        900180                                                                                                                                                                                                  
BQ FFZ闽水口_513.80                   200.200. 100. -20. 1.0                                        900190                                                                                                                                                                                                  
BQ FFZ闽水口_613.80                   200.200. 100. -20. 1.0                                        900260                                                                                                                                                                                                  
B @FFZ闽水口_713.80
.                   200.0.   100. -20. 1.0                                        900270                                                                                                                                                                                                  
.
. 龙岩
.
BQ FLY闽棉电_115.80                   150.150. 37.5 -10. 1.0                                        960431
BQ FLY闽棉电_215.80                   150.150. 37.5 -10. 1.0                                        960432
BQ FLY闽棉电_315.80                   150.150. 37.5 -10. 1.0                                        960441                                                                                                                                                                                                  
B @FLY闽棉电_415.80
.                   150.0.   37.5 -10. 1.0                                        960442                                                                                                                                                                                                  
.
. 三明
.
BQ FSM闽街面_115.80                   150.150. 75.  -14. 1.0                                        981030
BQ FSM闽街面_215.80                   150.150. 75.  -14. 1.0                                        981040
BQ FSM闽池潭_110.50                   50. 50.  20.  -15. 1.0                                        970540
B @FSM闽池潭_210.50
.                   50. 0.   20.  -15. 1.0     
.
. 南平
.
BQ FNP闽沙电_113.80                   75. 75.  40.  -15. 1.0                                        980541
BQ FNP闽沙电_213.80                   75. 75.  40.  -15. 1.0                                        980542
BQ FNP闽沙电_313.80                   75. 75.  40.  -15. 1.0                                        980551                                                                                                                                                                                                  
B @FNP闽沙电_413.80
.                   75. 0.   40.  -15. 1.0                                        980552                                                                                                                                                                                                  
.
....................
.  水电辅助节点                                                                                                                                                                                                                                                                                                       
....................
.
. 主要针对水电扩大单元接线机组
.
B  FND闽芹山__10.50                                                                                 990230
B  FND闽丰源__10.50                                                                                 990630
B  FNP闽沙电1213.80                                                                                 980540
B  FNP闽沙电3413.80                                                                                 980550
B  FLY闽棉电1215.80                                                                                 960430
B  FLY闽棉电3415.80                                                                                 960440
B  FND闽一级126.3 0                                                                                 912840
B  FND闽一级346.3 0                                                                                 912850
B  FND闽一级566.3 0                                                                                 912860
B  FND闽三级__6.3 0                                                                                 912940
.
. 机端并联短接线
.
L     闽芹山_110.5 闽芹山__10.5       .00000.00010                零支路                                                                                                                                                                                                                                    
L     闽芹山_210.5 闽芹山__10.5       .00000.00010                零支路                                                                                                                                                                                                                                    
L     闽丰源_110.5 闽丰源__10.5       .00000.00010                零支路                                                                                                                                                                                                                                    
L     闽丰源_210.5 闽丰源__10.5       .00000.00010                零支路                                                                                                                                                                                                                                    
L     闽沙电_113.8 闽沙电1213.8       .00000.00010                零支路                                                                                                                                                                                                                                    
L     闽沙电_213.8 闽沙电1213.8       .00000.00010                零支路                                                                                                                                                                                                                                    
L     闽沙电_313.8 闽沙电3413.8       .00000.00010                零支路                                                                                                                                                                                                                                    
L     闽沙电_413.8 闽沙电3413.8       .00000.00010                零支路                                                                                                                                                                                                                                    
L     闽棉电_115.8 闽棉电1215.8       .00000.00010                零支路                                                                                                                                                                                                                                    
L     闽棉电_215.8 闽棉电1215.8       .00000.00010                零支路                                                                                                                                                                                                                                    
L     闽棉电_315.8 闽棉电3415.8       .00000.00010                零支路                                                                                                                                                                                                                                    
L     闽棉电_415.8 闽棉电3415.8       .00000.00010                零支路                                                                                                                                                                                                                                    
L     闽一级_16.3  闽一级126.3        .00000.00010                零支路                                                                                                                                                                                                                                    
L     闽一级_26.3  闽一级126.3        .00000.00010                零支路                                                                                                                                                                                                                                    
L     闽一级_36.3  闽一级346.3        .00000.00010                零支路                                                                                                                                                                                                                                    
L     闽一级_46.3  闽一级346.3        .00000.00010                零支路                                                                                                                                                                                                                                    
L     闽一级_56.3  闽一级566.3        .00000.00010                零支路                                                                                                                                                                                                                                    
L     闽一级_66.3  闽一级566.3        .00000.00010                零支路                                                                                                                                                                                                                                    
L     闽三级_16.3  闽三级__6.3        .00000.00010                零支路                                                                                                                                                                                                                                    
L     闽三级_26.3  闽三级__6.3        .00000.00010                零支路                                                                                                                                                                                                                                    
.
....................
.  电厂高压母线
.   及联变母线                                                                                                                                                                                                                                                                                                       
....................
.
. 500kV节点
.
B  FFZ闽可门__525.1                                                                                 901310
B  FFZ闽江阴__525.1                                                                                 901510
B  FPT闽前云__525.2                                                                                 901710
B  FZZ闽后石__525.5               -137                                                              900610
B  FND闽大唐__525.9                                                                                 901150
.2012年5月投产晴川（宁德）核电一期送出工程
B  FND闽晴川__525.9                                                                                 902410
.规划2012年10月投产福清核电一期送出工程，暂按2013年初投产考虑
B  FFZ闽福核__525.1                                                                                 902510
.规划2012年10月投产仙游西苑抽蓄送出工程，暂按2013年初投产考虑
B  FPT闽西抽__525.2                                                                                 902610
.
.水口低抗2×45MVAR，无电容                                                                                                                                                                                                                                                                                   
B  FFZ闽水口__525.1                                                                                 900110
B  FFZ闽水口Z_230.1                                                                                 900120
B  FFZ闽水口L_ 35.1               -90.                                                              900140
B  FFZ闽水口B1 1.01                                                                                 900130
.
. 220kV节点
.
.晴川（宁德）核电外部供电变电站
B  FND闽晴川Z_230.9                                                                                 902420
.
B  FFZ闽华能Z1230.1                                                                                 910110
B  FFZ闽华能Z2230.1                                                                                 910120
B  FND闽二级Z_230.1                                                                                 910320
B  FPT闽湄电Z_230.2                                                                                 920120
B  FQZ闽南埔Z_230.3                                                                                 931820
B  FQZ闽南埔Z2230.3                                                                                 931920
B  FQZ闽石圳Z_230.3                                                                                 932820
B  FQZ闽鸿山Z_230.3                                                                                 935120
.
.B  FXM闽嵩屿Z_230.4                                                                                 940820                                                                                                                                                                                                  
B  FXM闽嵩屿Z1230.4                                                                                 940820
B  FXM闽嵩屿Z2230.4                                                                                 940920
.
B  FXM闽新店Z_230.4                                                                                 941620
.后石启备变
B  FZZ闽后石Z_230.5                                                                                 951220
B  FLY闽漳平Z_230.6                                                                                 960320
B  FLY闽漳平Z1230.6                                                                                 935220
B  FLY闽棉电Z_230.6                                                                                 960420
B  FLY闽坑口Z_230.6                                                                                 960720
B  FLY闽坑口Z2230.6                                                                                 960722
B  FSM闽街面Z_230.7 65.  22.                                                                        981020
B  FSM闽池潭Z_230.7                                                                                 970520
.B  FSM闽永安Z_230.7                                                                                 970620                                                                                                                                                                                                  
B  FSM闽永安Z1230.7                                                                                 972820
B  FNP闽沙电Z_230.8                                                                                 980520
B  FNP闽邵武Z_230.8                                                                                 980620
B  FND闽芹山Z_230.9                                                                                 990220
B  FND闽周宁Z_230.9 0.   0.                                                                         990420
B  FND闽丰源Z_230.9                                                                                 990620
B  FND闽洪口Z_230.9                                                                                 990920
.
. 110kV节点及220/110kV联变节点
.                                                                                                                                                                                                                                                                                                            
B  FND闽二级M_115.1                                                                                 910330
B  FND闽三级M_115.1                                                                                 912930
B  FND闽四级M_115.1                                                                                 913030
B  FND闽一级M_115.1                                                                                 912830
.B  FSM闽永安L_ 37.7                                                                                 970640                                                                                                                                                                                                  
B  FLY闽漳平B1 1.06                                                                                 960340
B  FLY闽漳平B2 1.06                                                                                 960350
B  FSM闽池潭B1 1.07                                                                                 970560
.B  FSM闽永安B1 1.07                                                                                 970670                                                                                                                                                                                                  
.B  FSM闽永安B3 1.07                                                                                 970680                                                                                                                                                                                                  
.B  FSM闽永安B4 1.07                                                                                 970690                                                                                                                                                                                                  
B  FNP闽沙电B1 1.08                                                                                 980560
B  FNP闽沙电B2 1.08                                                                                 980570
B  FND闽二级B1 1.01                                                                                 910360
B  FND闽二级B2 1.01                                                                                 910370
.                   
.
B     炼化110 115.3                                                                                            
.
B     炼化353 37. 3
B     炼化354 37. 3
.
B     炼化350137. 3
B     炼化350237. 3
B     炼化350337. 3
B     炼化350437. 3
.
B     炼化中1 1.0 3
B     炼化中2 1.0 3
B     炼化中3 1.0 3
B     炼化中4 1.0 3
.
B     炼化1机 10.53
B     炼化2机 10.53
.
B     炼化3机 15. 3
B     炼化4机 15. 3                                                                                                                 
.
T     炼化1机 10.5 炼化353 37.   31.51      .26444            10.5 37.          
T     炼化2机 10.5 炼化354 37.   31.51      .26444            10.5 37.
T     炼化3机 15.  炼化110 115.  180.1      .06067            15.  115.
T     炼化4机 15.  炼化110 115.  180.1      .06067            15.  115.
.
T     炼化353 37.  炼化110 115.  100.1      .1423             37.  115.
T     炼化354 37.  炼化110 115.  100.1      .1423             37.  115.
.
T     闽炼化Z_230. 炼化中1 1.0   120.1      .118              230. 1.0
T     炼化110 115. 炼化中1 1.0   120.1      -.0074            115. 1.0
T     炼化350137.  炼化中1 1.0   60. 1      .0746             37.  1.0
.
T     闽炼化Z_230. 炼化中2 1.0   120.1      .118              230. 1.0
T     炼化110 115. 炼化中2 1.0   120.1      -.0074            115. 1.0
T     炼化350237.  炼化中2 1.0   60. 1      .0746             37.  1.0
.
T     闽炼化Z_230. 炼化中3 1.0   120.1      .118              230. 1.0
T     炼化110 115. 炼化中3 1.0   120.1      -.0074            115. 1.0
T     炼化350337.  炼化中3 1.0   60. 1      .0746             37.  1.0
.
T     闽炼化Z_230. 炼化中4 1.0   120.1      .118              230. 1.0
T     炼化110 115. 炼化中4 1.0   120.1      -.0074            115. 1.0
T     炼化350437.  炼化中4 1.0   60. 1      .0746             37.  1.0

....................
.  电厂升压变                                                                                                                                                                                                                                                                                                       
....................
.
. 500kV升压变
.
.2012年底新增晴川（宁德）核电厂
T     闽晴川__525.1闽晴川_126.01      .00001.01119            525. 26.0         
T     闽晴川__525.1闽晴川_226.01      .00001.01119            525. 26.0         
.暂按2013年西苑抽蓄投产两台机考虑
T     闽西抽__525.1闽西抽_1 18.       .00001.03751            52500 1800         
T     闽西抽__525.1闽西抽_2 18.       .00001.03751            52500 1800      
.4档                                                                                                                                                                                                                                                                                                        
T     闽可门__525.1闽可门_120. 1 720.1.00030.02286            53625 2000                  1.4  可门#1主变                         1   0.00000 0.02083                                                                                                                                                       
T     闽可门__525.1闽可门_220. 1 720.1.00030.02286            53625 2000                  1.4  可门#2主变                         1   0.00000 0.02083                                                                                                                                                       
T     闽可门__525.1闽可门_320. 1 720.1.00030.02286            53625 2000                  1.4  可门#3主变                         1   0.00000 0.02109                                                                                                                                                       
T     闽可门__525.1闽可门_420. 1 720.1.00030.02286            53625 2000                  1.4  可门#4主变                         1   0.00000 0.02109                                                                                                                                                       
.3档                                                                                                                                                                                                                                                                                                        
T     闽江阴__525. 闽江阴_1 20.1 720.1.00032.02032            52500 2000                  1.4  江阴#1主变                         1   0.00000 0.01944                                                                                                                                                       
T     闽江阴__525. 闽江阴_2 20.1 720.1.00025.02058            52500 2000                  1.4  江阴#2主变                         1   0.00000 0.01944                                                                                                                                                       
.3档
T     闽前云_1 20. 闽前云__525.1 480.1.00042.03885             20. 530.                   1.4  前云#1主变                         2   0.00000 0.03218                                                                                                                                                       
T     闽前云_2 20. 闽前云__525.1 480.1.00042.03885             20. 530.                   1.4  前云#2主变                         2   0.00000 0.03218                                                                                                                                                       
T     闽前云_3 20. 闽前云__525.1 480.1.00042.03885             20. 530.                   1.4  前云#3主变                         2   0.00000 0.03218                                                                                                                                                       
T     闽前云_4 20. 闽前云__525.1 480.1.00042.03885             20. 530.                   1.4  前云#4主变                         2   0.00000 0.03218 
.4档                                                                                                                                                                                                                                                                                                        
T     闽后石__525.1闽后石_1 23.1 750.1.00027.02081            53625 2300                  1.4  后石#1主变                         1   0.00000 0.06062                                                                                                                                                       
T     闽后石__525.1闽后石_2 23.1 750.1.00027.02090            53625 2300                  1.4  后石#2主变                         1   0.00000 0.06062                                                                                                                                                       
T     闽后石__525.1闽后石_3 23.1 750.1.00027.02104            53625 2300                  1.4  后石#3主变                         1   0.00000 0.06062                                                                                                                                                       
T     闽后石__525.1闽后石_4 23.1 750.1.00027.02106            53625 2300                  1.4  后石#4主变                         1   0.00000 0.06062                                                                                                                                                       
T     闽后石__525.1闽后石_5 23.1 750.1.00027.02049            53625 2300                  1.4  后石#5主变                         1   0.00000 0.05879                                                                                                                                                       
T     闽后石__525.1闽后石_6 23.1 750.1.00027.02049            53625 2300                  1.4  后石#6主变                         1   0.00000 0.05879                                                                                                                                                       
T     闽后石__525.1闽后石_7 19.1 750.1.00027.02049            53625 1900                  1.4  后石#7主变                         1   0.00000 0.03973                                                                                                                                                       
.4档                                                                                                                                                                                                                                                                                                        
T     闽大唐__525.1闽大唐_320. 1 720.1.00021.01999            51187 2000                  1.4  宁德#3主变                         1   0.00000 0.01992                                                                                                                                                       
.3档                                                                                                                                                                                                                                                                                                        
T     闽大唐__525.1闽大唐_420. 1 720.1.00021.01999            52500 2000                  1.4  宁德#4主变                         1   0.00000 0.01992                                                                                                                                                       
.3档                                                                                                                                                                                                                                                                                                        
T     闽大唐__525.1闽大唐_122. 1 720.1.00021.01999            52500 2200                  1.4  宁德#1主变                         1   0.00000 0.01992                                                                                                                                                       
.3档                                                                                                                                                                                                                                                                                                            
T     闽大唐__525.1闽大唐_222. 1 720.1.00021.01999            52500 2200                  1.4  宁德#2主变                         1   0.00000 0.01992                                                                                                                                                       
.
. 220kV升压变
.
. 火电
.
.4档                                                                                                                                                                                                                                                                                                        
T     闽华能Z1230.1闽华能_1 22.1 436.1.00055.03555            23595 2200                  1.4  福州#1主变                         1   0.00000 0.03211                                                                                                                                                       
T     闽华能Z1230.1闽华能_2 22.1 436.1.00055.03555            23595 2200                  1.4  福州#2主变                         4  -0.00000 0.03211                                                                                                                                                       
T     闽华能Z1230.1闽华能_3 21.1 435.1.00052.03716            23595 2100                  1.4  福州#3主变                         4   0.00000 0.03365                                                                                                                                                       
T     闽华能Z1230.1闽华能_4 21.1 435.1.00052.03716            23595 2100                  1.4  福州#4主变                         4  -0.00000 0.03365                                                                                                                                                       
.3档                                                                                                                                                                                                                                                                                                        
T     闽华能Z2230.1闽华能_5 20.1 760.1.00027.02049            23595 2000                  1.4  福州#5主变                         1   0.00000 0.06062
T     闽华能Z2230.1闽华能_6 20.1 760.1.00027.02049            23595 2000                  1.4  福州#6主变                         4   0.00000 0.06062
.3档                                                                                                                                                                                                                                                                                                        
T     闽湄电Z_230.1闽湄电_124.01 470.1.00058.02099            24200 2400                  1.4  湄电#1主变                         1   0.00000 0.03262                                                                                                                                                       
T     闽湄电Z_230.1闽湄电_224.01 470.1.00058.02099            24200 2400                  1.4  湄电#2主变                         4  -0.00000 0.03262                                                                                                                                                       
.3档                                                                                                                                                                                                                                                                                                        
T     闽南埔Z_230.1闽南埔_1 20.1 370.1.00051.04189            24200 2000                  1.4  南埔#1主变                         1   0.00000 0.03810                                                                                                                                                       
T     闽南埔Z_230.1闽南埔_2 20.1 370.1.00051.04222            24200 2000                  1.4  南埔#2主变                         4  -0.00000 0.03810                                                                                                                                                       
.南埔II期机组，1号机5月投产，2号机7月投产，主变参数及档位参考华能III期
T     闽南埔Z2230.1闽南埔_3 20.1 760.1.00027.02049            23595 2000                  1.4  南埔#3主变                         1   0.00000 0.06062
T     闽南埔Z2230.1闽南埔_4 20.1 760.1.00027.02049            23595 2000                  1.4  南埔#4主变                         4   0.00000 0.06062
.4档
T     闽石圳_1  19 闽石圳Z_230.1 480.1.00044.04052            1900 23595                  1.4  石圳#1主变                         2   0.00000 0.03750                                                                                                                                                       
T     闽石圳_2  19 闽石圳Z_230.1 480.1.00044.04052            1900 23595                  1.4  石圳#2主变                         4   0.00000 0.03750                                                                                                                                                       
T     闽石圳_3  19 闽石圳Z_230.1 480.1.00044.04052            1900 23595                  1.4  石圳#3主变                         4   0.00000 0.03750                                                                                                                                                       
T     闽石圳_4  19 闽石圳Z_230.1 480.1.00044.04052            1900 23595                  1.4  石圳#4主变                         4   0.00000 0.03750                                                                                                                                                       
.3档                                                                                                                                                                                                                                                                                                        
T     闽鸿山Z_230.1闽鸿山_122. 1 720.1.00027.02047            236002200                                                 DMIS      1                  
T     闽鸿山Z_230.1闽鸿山_222. 1 720.1.00027.02047            236002200                                                 DMIS      1                                                                                                                                                                         
.3档                                                                                                                                                                                                                                                                                                        
T     闽嵩屿Z1230.1闽嵩屿_1 20.1 370.1.00058.04249            24200 2000                  1.4  嵩屿#1主变                         1   0.00000 0.03825                                                                                                                                                       
T     闽嵩屿Z1230.1闽嵩屿_2 20.1 370.1.00052.04159            24200 2000                  1.4  嵩屿#2主变                         4   0.00000 0.03722                                                                                                                                                       
.4档                                                                                                                                                                                                                                                                                                        
T     闽嵩屿Z2230.1闽嵩屿_3 20.1 370.1.00052.04045            23595 2000                  1.4  嵩屿#3主变                         4  -0.00000 0.03611                                                                                                                                                       
T     闽嵩屿Z2230.1闽嵩屿_4 20.1 370.1.00052.04045            23595 2000                  1.4  嵩屿#4主变                         4  -0.00000 0.03611                                                                                                                                                       
.4档                                                                                                                                                                                                                                                                                                        
T     闽新店_1  21 闽新店Z_ 2301 480.1.00052.04151             21. 242.                   1.4  新店#1主变                         2   0.00000 0.03750                                                                                                                                                       
T     闽新店_2  21 闽新店Z_ 2301 480.1.00052.04151             21. 242.                   1.4  新店#2主变                         4   0.00000 0.03750                                                                                                                                                       
.4档                                                                                                                                                                                                                                                                                                        
T     闽坑口Z_230.1闽坑口_113.81 170.1.00153.08466            235951380                   1.4  坑口#1主变                         1  -0.00000 0.07966                                                                                                                                                       
T     闽坑口Z_230.1闽坑口_213.81 170.1.00153.08466            235951380                   1.4  坑口#2主变                         4  -0.00000 0.07966                                                                                                                                                       
T     闽坑口Z_230.1闽坑口_313.81 170.1.00153.08466            235951380                   1.4  坑口#3主变                         4  -0.00000 0.07966                                                                                                                                                       
T     闽坑口Z_230.1闽坑口_413.81 170.1.00153.08466            235951380                   1.4  坑口#4主变                         4  -0.00000 0.07966                                                                                                                                                       
.4档
T     闽坑口Z2230.1闽坑口_5 20.1 370.1.00051.04189            23595 2000.                 1.4  坑口#5主变                         1   0.00000 0.03810                                                                                                                                                       
T     闽坑口Z2230.1闽坑口_6 20.1 370.1.00051.04189            23595 2000.                 1.4  坑口#6主变                         4   0.00000 0.03810                                                                                                                                                       
.3档
T     闽永安Z1230.1闽永安_7 20.1 370.1.00053.04132            235952000   611                                           OMS       1                  
T     闽永安Z1230.1闽永安_8 20.1 370.1.00053.04132            235952000   611                                           OMS       1 
.3档
T     闽漳平Z1230.1闽漳平_520. 1 370.1.00053.04117            235952000   511                                           OMS       1                  
T     闽漳平Z1230.1闽漳平_620. 1 370.1.00053.04117            235952000   511                                           OMS       1  
.3档（“上大压小”后机组停运，主变按降压变运行供地方负荷）                                                                                                                                                                                                                                                                                                        
T     闽漳平Z_230. 闽漳平B1 1.01 120.1.00320.12782            24200  100                  1.4  漳平#1主变                         4   0.00000 0.11554                                                                                                                                                       
T     闽漳平M_115. 闽漳平B1 1.01 120.1.00217.07791            12100  100                  1.4  漳平#1主变                         4   0.00000 0.07029                                                                                                                                                       
T     闽漳平Z_230. 闽漳平B2 1.01 120.1.00320.12741            24200  100                  1.4  漳平#2主变                         4   0.00000 0.11508                                                                                                                                                       
T     闽漳平M_115. 闽漳平B2 1.01 120.1.00230.07833            12100  100                  1.4  漳平#2主变                         4   0.00000 0.07075                                                                                                                                                       
..4档
.T     闽永安M_115.1闽永安B1 1.01 31.51.01390.38660            11700  100                  1.4  永安#1主变                         4  -0.00000 0.34825                                                                                                                                                       
.T     闽永安L_ 37.1闽永安B1 1.01 31.51.01102.25304             3700  100                  1.4  永安#1主变                         4  -0.00000 0.22952                                                                                                                                                       
.T     闽永安_1 6.31闽永安B1 1.01 31.51.00976-.0260              630  100                  1.4  永安#1主变                         4   0.00000-0.02444                                                                                                                                                       
.T     闽永安M_115.1闽永安_2 6.31 31.51.01365.37359            11700  630                  1.4  永安#2主变                         4  -0.00000 0.29779                                                                                                                                                       
..3档                                                                                                                                                                                                                                                                                                        
.T     闽永安Z_230.1闽永安B3 1.01 120.1.00343.12787            24200  100                  1.4  永安#3主变                         4   0.00000 0.11550                                                                                                                                                       
.T     闽永安M_115.1闽永安B3 1.01 120.1.00214.08340            12100  100                  1.4  永安#3主变                         4  -0.00000 0.08340                                                                                                                                                       
.T     闽永安Z_230.1闽永安B4 1.01 120.1.00189.12316            24200  100                  1.4  永安#4主变                         4  -0.00000 0.12316                                                                                                                                                       
.T     闽永安M_115.1闽永安B4 1.01 120.1.00116.08995            12100  100                  1.4  永安#4主变                         4  -0.00000 0.08995                                                                                                                                                       
.4档                                                                                                                                                                                                                                                                                                        
T     闽邵武Z_230.1闽邵武_113.81 150.1.00188.09668            23595 1380                  1.4  邵武#1主变                         1  -0.00000 0.08657                                                                                                                                                       
...