src/test/resources/bpafiles/fj/2013年年大方式.lis

SCCPC 短路电流计算程序  版本 1.1.4  发布时间 Mar  3 2011 09:06:43

Wall clock : Sun Nov 04 21:09:52 2012

<SHORT_CURRENT_SCAN_RESULT>
.#      母 线                 故障类型     遮断电流  短路电流 短路容量         正序等值阻抗          负序等值阻抗          零序等值阻抗   分区
.#                          1-单相/2-三相   (kA)       (kA)     (MVA)          R1+jX1 (欧姆)         R2+jX2 (欧姆)         R0+jX0 (欧姆)      
.#---------------------    --------------- --------  -------- ---------     ------------------    ------------------    ----------------- ----
"国东明__"  525.0     B      0.0     2     63.000     19.161  17423.981      2.025     15.294      1.962     14.910      9.575     36.278 "GD" 
.L/T       母线I            母线J      ID    支路电流(kA/deg)  百分数  开断短路电流(kA/deg)
.    ---------------- ---------------- ---  -----------------  ------  --------------------
   L "国东明__" 525.0 "国三堡_C" 525.0 "1"   4.033    112.438   0.211  15.017  113.608
   L "国东明__" 525.0 "国三堡_C" 525.0 "2"   4.017    112.093   0.210  15.034  113.600
   L "国东明__" 525.0 "国三堡_C" 525.0 "3"   4.247    111.751   0.222  14.793  113.899
   L "国东明__" 525.0 "国阳城__" 525.0 "1"   2.330    120.974   0.122  17.972  115.265
   L "国东明__" 525.0 "国阳城__" 525.0 "2"   2.185    119.890   0.114  18.062  115.238
   L "国东明__" 525.0 "国阳城__" 525.0 "3"   2.176    121.801   0.114  18.068  115.255
"国枫泾__"  525.0     B      0.0     2     63.000     25.481  23170.690      0.790     11.639      0.728     11.455      1.834     20.314 "GD" 
.L/T       母线I            母线J      ID    支路电流(kA/deg)  百分数  开断短路电流(kA/deg)
.    ---------------- ---------------- ---  -----------------  ------  --------------------
   L "国枫泾__" 525.0 "沪练塘__" 525.0 "1"  12.747     78.299   0.500  19.573   75.900
   L "国枫泾__" 525.0 "沪练塘__" 525.0 "2"  12.697     78.288   0.498  19.609   75.916
"国奉贤__"  525.0     B      0.0     2     63.000     53.965  49071.853      0.507      5.502      0.459      5.353      0.321      4.401 "GD" 
.L/T       母线I            母线J      ID    支路电流(kA/deg)  百分数  开断短路电流(kA/deg)
.    ---------------- ---------------- ---  -----------------  ------  --------------------
   L "国奉贤__" 525.0 "沪远东__" 525.0 "1"  17.173     82.068   0.318  53.329   80.753
   L "国奉贤__" 525.0 "沪远东__" 525.0 "2"  17.173     82.068   0.318  53.329   80.753
   L "国奉贤__" 525.0 "沪远东__" 525.0 "3"  19.615     82.476   0.363  53.190   80.726
"国葛南_1"  230.0     B      0.0     2     50.000     40.073  15963.758      0.494      3.386      0.464      3.314      0.094      2.123 "GD" 
.L/T       母线I            母线J      ID    支路电流(kA/deg)  百分数  开断短路电流(kA/deg)
.    ---------------- ---------------- ---  -----------------  ------  --------------------
   L "国葛南_1" 230.0 "沪南桥_2" 230.0 "1"  40.072     78.824   1.000   1.361  -20.099
"国葛南_2"  230.0     B      0.0     2     50.000     40.566  16160.513      0.497      3.343      0.468      3.272      0.094      2.103 "GD" 
.L/T       母线I            母线J      ID    支路电流(kA/deg)  百分数  开断短路电流(kA/deg)
.    ---------------- ---------------- ---  -----------------  ------  --------------------
   L "国葛南_2" 230.0 "沪南桥_3" 230.0 "1"  40.566     78.324   1.000   0.000   69.865
"国三堡_C"  525.0     B      0.0     2     63.000    240.867 219026.779      0.829     -0.906      0.784     -1.118      2.737    -13.770 "GD" 
.L/T       母线I            母线J      ID    支路电流(kA/deg)  百分数  开断短路电流(kA/deg)
.    ---------------- ---------------- ---  -----------------  ------  --------------------
   L "国三堡_C" 525.0 "国东明__" 525.0 "1"   1.585     85.960   0.007 241.328 -129.743
   L "国三堡_C" 525.0 "国东明__" 525.0 "2"   1.579     85.319   0.007 241.325 -129.744
   L "国三堡_C" 525.0 "国东明__" 525.0 "3"   1.669     85.164   0.007 241.372 -129.739
   L "国三堡_C" 525.0 "国三堡__" 525.0 "1"  80.549   -128.521   0.334  45.709  -96.519
   L "国三堡_C" 525.0 "国三堡__" 525.0 "2"  80.549   -128.521   0.334  45.709  -96.519
   L "国三堡_C" 525.0 "国三堡__" 525.0 "3"  80.549   -128.521   0.334  45.709  -96.519
"国三堡__"  525.0     B      0.0     2     63.000     37.900  34463.064      0.688      7.636      0.651      7.445      2.057     14.685 "GD" 
.L/T       母线I            母线J      ID    支路电流(kA/deg)  百分数  开断短路电流(kA/deg)
.    ---------------- ---------------- ---  -----------------  ------  --------------------
   L "国三堡__" 525.0 "国三堡_C" 525.0 "1"   2.061    116.407   0.054  38.463  103.596
   L "国三堡__" 525.0 "国三堡_C" 525.0 "2"   2.061    116.407   0.054  38.463  103.596
   L "国三堡__" 525.0 "国三堡_C" 525.0 "3"   2.061    116.407   0.054  38.463  103.596
   L "国三堡__" 525.0 "苏任庄__" 525.0 "1"  10.220    104.753   0.270  29.270  103.465
   L "国三堡__" 525.0 "苏三汊__" 525.0 "1"   2.854     98.570   0.075  35.656  103.541
   L "国三堡__" 525.0 "苏三汊__" 525.0 "2"   2.865     98.301   0.076  35.646  103.554
   L "国三堡__" 525.0 "苏双泗__" 525.0 "1"   5.561    100.941   0.147  34.275  103.370
   L "国三堡__" 525.0 "苏双泗__" 525.0 "2"   5.509    100.925   0.145  34.316  103.376
   T "国三堡__" 525.0 "苏三堡B1" 230.0 "1"   2.698    100.244   0.071  36.518  103.177
   T "国三堡__" 525.0 "苏三堡B2" 230.0 "1"   2.698    100.244   0.071  36.518  103.177
"国阳城__"  525.0     B      0.0     2     63.000     18.340  16677.173      0.955     16.663      0.815     15.410      0.191     10.122 "GD" 
.L/T       母线I            母线J      ID    支路电流(kA/deg)  百分数  开断短路电流(kA/deg)
.    ---------------- ---------------- ---  -----------------  ------  --------------------
   L "国阳城__" 525.0 "国东明__" 525.0 "1"   2.288    117.296   0.125  16.913  123.394
   L "国阳城__" 525.0 "国东明__" 525.0 "2"   2.146    117.098   0.117  17.019  123.439
   L "国阳城__" 525.0 "国东明__" 525.0 "3"   2.137    117.020   0.117  17.024  123.465
   T "国阳城__" 525.0 "国阳城_1"  21.0 "1"   1.273    129.451   0.069  17.138  124.090
   T "国阳城__" 525.0 "国阳城_2"  21.0 "1"   1.273    129.451   0.069  17.138  124.090
   T "国阳城__" 525.0 "国阳城_3"  21.0 "1"   1.273    129.451   0.069  17.138  124.090
   T "国阳城__" 525.0 "国阳城_4"  21.0 "1"   1.256    126.942   0.068  17.138  124.090
   T "国阳城__" 525.0 "国阳城_5"  21.0 "1"   1.256    126.942   0.068  17.138  124.090
   T "国阳城__" 525.0 "国阳城_6"  21.0 "1"   1.256    126.942   0.068  17.138  124.090
   T "国阳城__" 525.0 "国阳城_7"  21.0 "1"   2.223    129.623   0.121  16.343  124.235
   T "国阳城__" 525.0 "国阳城_8"  21.0 "1"   2.223    129.623   0.121  16.343  124.235
"国宜华__"  525.0     B      0.0     2     63.000     42.338  38499.514      0.748      6.931      0.715      6.862      0.694      6.779 "GD" 
.L/T       母线I            母线J      ID    支路电流(kA/deg)  百分数  开断短路电流(kA/deg)
.    ---------------- ---------------- ---  -----------------  ------  --------------------
   L "国宜华__" 525.0 "沪黄渡__" 525.0 "1"  21.378     81.283   0.505  38.465   78.909
   L "国宜华__" 525.0 "沪黄渡__" 525.0 "2"  20.953     81.248   0.495  38.602   78.953
"国政平__"  525.0     B      0.0     2     63.000     54.212  49296.680      0.650      5.388      0.612      5.302      0.963      6.887 "GD" 
.L/T       母线I            母线J      ID    支路电流(kA/deg)  百分数  开断短路电流(kA/deg)
.    ---------------- ---------------- ---  -----------------  ------  --------------------
   L "国政平__" 525.0 "苏武南__" 525.0 "1"  23.175     83.552   0.427  48.924   82.694
   L "国政平__" 525.0 "苏武南__" 525.0 "2"  23.175     83.552   0.427  48.924   82.694
   L "国政平__" 525.0 "苏岷珠__" 525.0 "1"   7.860     86.099   0.145  50.555   82.586
"沪拜耳98"  230.0     B      0.0     2     50.000     27.662  11019.863      0.730      4.806      0.684      4.671      0.351      2.905 "SH" 
.L/T       母线I            母线J      ID    支路电流(kA/deg)  百分数  开断短路电流(kA/deg)
.    ---------------- ---------------- ---  -----------------  ------  --------------------
   L "沪拜耳98" 230.0 "沪目华__" 230.0 "1"  27.660     76.617   1.000   0.054  154.861
"沪拜耳99"  230.0     B      0.0     2     50.000     27.807  11077.702      0.736      4.779      0.689      4.645      0.351      2.894 "SH" 
.L/T       母线I            母线J      ID    支路电流(kA/deg)  百分数  开断短路电流(kA/deg)
.    ---------------- ---------------- ---  -----------------  ------  --------------------
   L "沪拜耳99" 230.0 "沪目华__" 230.0 "1"  27.805     76.726   1.000   0.055  148.637
"沪宝钢Y1"  115.0     B      0.0     2     30.000     21.766   4335.572      0.098      3.024      0.080      2.670      0.112 100000.000 "SB" 
.L/T       母线I            母线J      ID    支路电流(kA/deg)  百分数  开断短路电流(kA/deg)
.    ---------------- ---------------- ---  -----------------  ------  --------------------
   L "沪宝钢Y1" 115.0 "沪宝钢Y2" 115.0 "9"  10.183     85.919   0.468  21.452   86.465
   L "沪宝钢Y1" 115.0 "沪宝钢_1" 115.0 "1"   6.983     83.306   0.321  21.620   86.375
   T "沪宝钢Y1" 115.0 "沪宝钢_1"  21.0 "1"   5.046     94.854   0.232  17.062   86.773
"沪宝钢Y2"  115.0     B      0.0     2     30.000     21.766   4335.565      0.098      3.024      0.080      2.670      0.112 100000.000 "SB" 
.L/T       母线I            母线J      ID    支路电流(kA/deg)  百分数  开断短路电流(kA/deg)
.    ---------------- ---------------- ---  -----------------  ------  --------------------
   L "沪宝钢Y2" 115.0 "沪宝钢Y1" 115.0 "9"  10.190     85.920   0.468  21.451   86.465
   L "沪宝钢Y2" 115.0 "沪宝钢_2" 115.0 "2"   6.978     83.304   0.321  21.620   86.375
   T "沪宝钢Y2" 115.0 "沪宝钢_2"  21.0 "2"   5.043     94.859   0.232  17.064   86.773
"沪宝钢_1"  115.0     B      0.0     2     30.000     21.804   4342.995      0.098      3.017      0.081      2.670      0.090 100000.000 "SB" 
.L/T       母线I            母线J      ID    支路电流(kA/deg)  百分数  开断短路电流(kA/deg)
.    ---------------- ---------------- ---  -----------------  ------  --------------------
   L "沪宝钢_1" 115.0 "沪宝钢Y1" 115.0 "1"   5.697     94.799   0.261  21.715   86.252
   L "沪宝钢_1" 115.0 "沪宝钢_2" 115.0 "9"  10.161     85.800   0.466  21.491   86.331
   T "沪宝钢_1" 115.0 "沪宝钢_1" 230.0 "1"   6.436     82.340   0.295  16.062   85.458
"沪宝钢_1"  230.0     B      0.0     2     50.000     40.480  16126.085      0.714      3.249      0.689      3.196      0.395      3.479 "SB" 
.L/T       母线I            母线J      ID    支路电流(kA/deg)  百分数  开断短路电流(kA/deg)
.    ---------------- ---------------- ---  -----------------  ------  --------------------
   L "沪宝钢_1" 230.0 "沪宝能__" 230.0 "1"  38.987     82.918   0.963   2.758   87.888
   T "沪宝钢_1" 230.0 "沪宝钢_1" 115.0 "1"   1.592     87.338   0.039  39.617   83.650
"沪宝钢_2"  115.0     B      0.0     2     30.000     21.803   4342.924      0.098      3.017      0.081      2.670      0.090 100000.000 "SB" 
.L/T       母线I            母线J      ID    支路电流(kA/deg)  百分数  开断短路电流(kA/deg)
.    ---------------- ---------------- ---  -----------------  ------  --------------------
   L "沪宝钢_2" 115.0 "沪宝钢Y2" 115.0 "2"   5.702     94.794   0.262  21.715   86.252
   L "沪宝钢_2" 115.0 "沪宝钢_1" 115.0 "9"  10.241     85.774   0.470  21.486   86.332
   T "沪宝钢_2" 115.0 "沪宝钢_2" 230.0 "2"   6.348     82.349   0.291  16.147   85.480
"沪宝钢_2"  230.0     B      0.0     2     50.000     40.548  16153.121      0.709      3.244      0.684      3.191      0.395      3.426 "SB" 
.L/T       母线I            母线J      ID    支路电流(kA/deg)  百分数  开断短路电流(kA/deg)
.    ---------------- ---------------- ---  -----------------  ------  --------------------
   L "沪宝钢_2" 230.0 "沪宝能__" 230.0 "2"  39.076     82.851   0.964   2.736   88.014
   T "沪宝钢_2" 230.0 "沪宝钢_2" 115.0 "2"   1.569     87.367   0.039  39.703   83.574
"沪宝能__"  230.0     B      0.0     2     50.000     42.168  16798.455      0.668      3.123      0.643      3.072      0.268      3.103 "SB" 
.L/T       母线I            母线J      ID    支路电流(kA/deg)  百分数  开断短路电流(kA/deg)
.    ---------------- ---------------- ---  -----------------  ------  --------------------
   L "沪宝能__" 230.0 "沪宝钢_1" 230.0 "1"   1.559     99.799   0.037  41.248   82.412
   L "沪宝能__" 230.0 "沪宝钢_2" 230.0 "2"   1.538     99.944   0.036  41.267   82.410
   L "沪宝能__" 230.0 "沪新宝__" 230.0 "1"  10.910     84.417   0.259  37.791   82.627
   L "沪宝能__" 230.0 "沪杨行__" 230.0 "1"  14.462     80.990   0.343  38.104   83.249
   L "沪宝能__" 230.0 "沪杨行__" 230.0 "2"  13.961     81.548   0.331  38.318   83.084
"沪宝浏__"  230.0     B      0.0     2     50.000     44.482  17720.459      0.637      2.967      0.617      2.929      0.271      3.351 "SH" 
.L/T       母线I            母线J      ID    支路电流(kA/deg)  百分数  开断短路电流(kA/deg)
.    ---------------- ---------------- ---  -----------------  ------  --------------------
   L "沪宝浏__" 230.0 "沪泰和_F" 230.0 "1"   0.051     89.637   0.001  44.265   81.834
   L "沪宝浏__" 230.0 "沪同济43" 230.0 "1"   0.003    158.595   0.000  44.444   82.452
   L "沪宝浏__" 230.0 "沪同济44" 230.0 "1"   0.003    156.762   0.000  44.443   82.472
   L "沪宝浏__" 230.0 "沪杨行__" 230.0 "1"   8.790     79.613   0.198  43.291   82.791
   L "沪宝浏__" 230.0 "沪杨行__" 230.0 "2"   8.749     83.712   0.197  43.294   82.685
   L "沪宝浏__" 230.0 "沪杨行__" 230.0 "3"   8.886     83.470   0.200  43.271   82.680
   L "沪宝浏__" 230.0 "沪杨行__" 230.0 "4"   8.745     79.242   0.197  43.301   82.810
   L "沪宝浏__" 230.0 "沪一钢47" 230.0 "1"   0.016    150.682   0.000  44.424   82.421
   L "沪宝浏__" 230.0 "沪蕴站__" 230.0 "1"   9.224     85.046   0.207  41.575   81.982
"沪长春__"  230.0     B      0.0     2     50.000     29.362  11696.951      1.024      4.554      0.990      4.494      0.099      2.398 "SJ" 
.L/T       母线I            母线J      ID    支路电流(kA/deg)  百分数  开断短路电流(kA/deg)
.    ---------------- ---------------- ---  -----------------  ------  --------------------
   L "沪长春__" 230.0 "沪港口_2" 230.0 "1"   0.015    143.460   0.000  29.256   78.171
   L "沪长春__" 230.0 "沪瑞金42" 230.0 "1"   0.018    152.077   0.001  29.233   77.694
   L "沪长春__" 230.0 "沪吴二__" 230.0 "1"   7.347     81.082   0.250  26.880   78.722
   L "沪长春__" 230.0 "沪吴二__" 230.0 "2"   5.530     75.221   0.188  27.741   79.208
   L "沪长春__" 230.0 "沪泗泾__" 230.0 "1"   8.176     76.144   0.278  25.590   79.200
   L "沪长春__" 230.0 "沪泗泾__" 230.0 "2"   8.235     76.478   0.280  25.554   79.180
   L "沪长春__" 230.0 "沪漕溪22" 230.0 "1"   0.000    154.787   0.000  29.243   77.716
   L "沪长春__" 230.0 "沪漕溪44" 230.0 "1"   0.002    151.864   0.000  29.288   78.183
"沪长兴B1"  230.0     B      0.0     2     50.000      3.050   1215.143      3.789     45.260      3.755     45.276      0.529 100000.000 "SM" 
.L/T       母线I            母线J      ID    支路电流(kA/deg)  百分数  开断短路电流(kA/deg)
.    ---------------- ---------------- ---  -----------------  ------  --------------------
   T "沪长兴B1" 230.0 "沪长兴Z1" 230.0 "1"   2.870     70.904   0.941   0.278  117.488
   T "沪长兴B1" 230.0 "沪长兴_1"  37.0 "1"   0.181     75.435   0.059   2.871   72.374
   T "沪长兴B1" 230.0 "沪长兴_1" 115.0 "1"   0.000     75.964   0.000   3.050   72.329
"沪长兴B2"  230.0     B      0.0     2     50.000      3.052   1216.023      4.135     45.166      4.098     45.179      0.529 100000.000 "SM" 
.L/T       母线I            母线J      ID    支路电流(kA/deg)  百分数  开断短路电流(kA/deg)
.    ---------------- ---------------- ---  -----------------  ------  --------------------
   T "沪长兴B2" 230.0 "沪长兴F2" 230.0 "2"   2.876     70.816   0.942   0.294  120.710
   T "沪长兴B2" 230.0 "沪长兴_2"  37.0 "2"   0.178     76.074   0.058   2.877   72.409
   T "沪长兴B2" 230.0 "沪长兴_2" 115.0 "2"   0.000     75.964   0.000   3.052   72.396
"沪长兴F1"  230.0     B      0.0     2     50.000     34.034  13558.344      0.723      4.014      0.693      3.938      0.529      3.807 "SM" 
.L/T       母线I            母线J      ID    支路电流(kA/deg)  百分数  开断短路电流(kA/deg)
.    ---------------- ---------------- ---  -----------------  ------  --------------------
   L "沪长兴F1" 230.0 "沪长兴F2" 230.0 "1"  33.362     80.882   0.980   0.405  126.812
   L "沪长兴F1" 230.0 "沪长兴Z1" 230.0 "1"   0.418     94.305   0.012  34.034   80.979
   L "沪长兴F1" 230.0 "沪陈家_Z" 230.0 "2"   0.136     96.921   0.004  34.035   80.983
"沪长兴F2"  230.0     B      0.0     2     50.000     34.462  13728.866      0.722      3.962      0.692      3.886      0.529      3.641 "SM" 
.L/T       母线I            母线J      ID    支路电流(kA/deg)  百分数  开断短路电流(kA/deg)
.    ---------------- ---------------- ---  -----------------  ------  --------------------
   L "沪长兴F2" 230.0 "沪长兴F1" 230.0 "1"   0.681     91.751   0.020  34.181   80.623
   L "沪长兴F2" 230.0 "沪长兴Z2" 230.0 "1"  16.528     80.963   0.480  29.245   81.327
   L "沪长兴F2" 230.0 "沪洲海__" 230.0 "2"  16.964     80.906   0.492  28.937   81.235
   T "沪长兴F2" 230.0 "沪长兴B2" 230.0 "2"   0.168    104.043   0.005  34.247   80.815
"沪长兴Z1"  230.0     B      0.0     2     50.000     33.620  13393.089      0.724      4.065      0.693      3.990      0.530      3.969 "SM" 
.L/T       母线I            母线J      ID    支路电流(kA/deg)  百分数  开断短路电流(kA/deg)
.    ---------------- ---------------- ---  -----------------  ------  --------------------
   L "沪长兴Z1" 230.0 "沪长兴F1" 230.0 "1"  32.689     80.573   0.972  18.855   80.764
   L "沪长兴Z1" 230.0 "沪陈家_Z" 230.0 "1"   0.636     91.629   0.019  33.613   80.856
   T "沪长兴Z1" 230.0 "沪长兴B1" 230.0 "1"   0.171    101.120   0.005  33.408   80.597
"沪长兴Z2"  230.0     B      0.0     2     50.000     34.454  13725.645      0.722      3.962      0.691      3.887      0.530      3.639 "SM" 
.L/T       母线I            母线J      ID    支路电流(kA/deg)  百分数  开断短路电流(kA/deg)
.    ---------------- ---------------- ---  -----------------  ------  --------------------
   L "沪长兴Z2" 230.0 "沪长兴F2" 230.0 "1"  17.345     80.515   0.503  28.979   80.843
   L "沪长兴Z2" 230.0 "沪洲海__" 230.0 "1"  16.975     81.701   0.493  28.926   81.217
"沪长兴_1"  115.0     B      0.0     2     30.000      6.773   1349.132      0.947     10.183      0.939     10.187      0.132 100000.000 "SM" 
.L/T       母线I            母线J      ID    支路电流(kA/deg)  百分数  开断短路电流(kA/deg)
.    ---------------- ---------------- ---  -----------------  ------  --------------------
   T "沪长兴_1" 115.0 "沪长兴B1" 230.0 "1"   6.773     72.858   1.000   0.000   67.543
"沪长兴_2"  115.0     B      0.0     2     30.000      6.779   1350.205      1.034     10.159      1.025     10.163      0.132 100000.000 "SM" 
.L/T       母线I            母线J      ID    支路电流(kA/deg)  百分数  开断短路电流(kA/deg)
.    ---------------- ---------------- ---  -----------------  ------  --------------------
   T "沪长兴_2" 115.0 "沪长兴B2" 230.0 "2"   6.779     72.975   1.000   0.000   67.166
"沪辰塔_1"  230.0     B      0.0     2     50.000     18.007   7173.466      0.853      7.639      0.834      7.602      0.448      6.383 "SJ" 
.L/T       母线I            母线J      ID    支路电流(kA/deg)  百分数  开断短路电流(kA/deg)
.    ---------------- ---------------- ---  -----------------  ------  --------------------
   L "沪辰塔_1" 230.0 "沪辰塔_2" 230.0 "1"  17.959     75.556   0.997   0.448  149.954
   L "沪辰塔_1" 230.0 "沪文祥_F" 230.0 "1"   0.018    141.735   0.001  18.008   75.808
   L "沪辰塔_1" 230.0 "沪文祥_F" 230.0 "2"   0.018    141.759   0.001  18.008   75.808
"沪辰塔_2"  230.0     B      0.0     2     50.000     18.130   7222.529      0.850      7.587      0.831      7.550      0.449      6.346 "SJ" 
.L/T       母线I            母线J      ID    支路电流(kA/deg)  百分数  开断短路电流(kA/deg)
.    ---------------- ---------------- ---  -----------------  ------  --------------------
   L "沪辰塔_2" 230.0 "沪辰塔_1" 230.0 "1"   0.049     80.160   0.003  18.013   74.473
   L "沪辰塔_2" 230.0 "沪练塘__" 230.0 "1"   4.506     75.449   0.249  17.178   76.074
   L "沪辰塔_2" 230.0 "沪练塘__" 230.0 "2"   4.516     75.464   0.249  17.176   76.074
   L "沪辰塔_2" 230.0 "沪练塘__" 230.0 "3"   4.506     75.449   0.249  17.178   76.074
   L "沪辰塔_2" 230.0 "沪练塘__" 230.0 "4"   4.516     75.464   0.249  17.176   76.074
"沪陈家B1"  230.0     B      0.0     2     50.000      2.318    923.556      4.625     59.660      4.585     59.589      0.954 100000.000 "SM" 
.L/T       母线I            母线J      ID    支路电流(kA/deg)  百分数  开断短路电流(kA/deg)
.    ---------------- ---------------- ---  -----------------  ------  --------------------
   T "沪陈家B1" 230.0 "沪陈家_1"  37.0 "1"   0.000     63.435   0.000   2.318   71.793
   T "沪陈家B1" 230.0 "沪陈家_1" 115.0 "1"   0.000     63.435   0.000   2.318   71.793
   T "沪陈家B1" 230.0 "沪陈家_Z" 230.0 "1"   2.318     70.585   1.000   0.147  157.361
"沪陈家B2"  230.0     B      0.0     2     50.000      1.754    698.802     13.802     73.695     13.714     73.611      7.499 100000.000 "SM" 
.L/T       母线I            母线J      ID    支路电流(kA/deg)  百分数  开断短路电流(kA/deg)
.    ---------------- ---------------- ---  -----------------  ------  --------------------
   T "沪陈家B2" 230.0 "沪陈家_2"  37.0 "1"   0.000     75.964   0.000   1.754   74.186
   T "沪陈家B2" 230.0 "沪陈家_2" 115.0 "1"   0.000     75.964   0.000   1.754   74.186
   T "沪陈家B2" 230.0 "沪陈家_F" 230.0 "1"   1.754     71.800   1.000   0.222  153.578
"沪陈家_1"  115.0     B      0.0     2     30.000      5.172   1030.211      1.156     13.361      1.146     13.343      0.239 100000.000 "SM" 
.L/T       母线I            母线J      ID    支路电流(kA/deg)  百分数  开断短路电流(kA/deg)
.    ---------------- ---------------- ---  -----------------  ------  --------------------
   T "沪陈家_1" 115.0 "沪陈家B1" 230.0 "1"   5.172     72.306   1.000   0.000   67.361
"沪陈家_2"  115.0     B      0.0     2     30.000      3.819    760.692      3.450     16.870      3.428     16.849      1.875 100000.000 "SM" 
.L/T       母线I            母线J      ID    支路电流(kA/deg)  百分数  开断短路电流(kA/deg)
.    ---------------- ---------------- ---  -----------------  ------  --------------------
   T "沪陈家_2" 115.0 "沪陈家B2" 230.0 "1"   3.819     75.137   1.000   0.000   63.578
"沪陈家_F"  230.0     B      0.0     2     50.000      6.259   2493.350      5.112     20.475      5.040     20.376      7.499     40.725 "SM" 
.L/T       母线I            母线J      ID    支路电流(kA/deg)  百分数  开断短路电流(kA/deg)
.    ---------------- ---------------- ---  -----------------  ------  --------------------
   L "沪陈家_F" 230.0 "沪中港__" 230.0 "1"   3.141     81.504   0.502   4.993   83.975
   L "沪陈家_F" 230.0 "沪中港__" 230.0 "2"   3.062     83.199   0.489   5.039   82.578
   T "沪陈家_F" 230.0 "沪陈家B2" 230.0 "1"   0.000    153.701   0.000   6.189   80.968
"沪陈家_Z"  230.0     B      0.0     2     50.000     28.221  11242.543      0.857      4.849      0.827      4.774      0.954      4.825 "SM" 
.L/T       母线I            母线J      ID    支路电流(kA/deg)  百分数  开断短路电流(kA/deg)
.    ---------------- ---------------- ---  -----------------  ------  --------------------
   L "沪陈家_Z" 230.0 "沪长兴F1" 230.0 "2"  14.368     78.535   0.509  23.888   80.536
   L "沪陈家_Z" 230.0 "沪长兴Z1" 230.0 "1"  13.602     82.162   0.482  24.276   80.681
   T "沪陈家_Z" 230.0 "沪陈家B1" 230.0 "1"   0.000    157.564   0.000  28.188   80.442
"沪陈太__"  230.0     B      0.0     2     50.000     33.952  13525.693      0.595      4.005      0.579      3.959      0.349      5.094 "SX" 
.L/T       母线I            母线J      ID    支路电流(kA/deg)  百分数  开断短路电流(kA/deg)
.    ---------------- ---------------- ---  -----------------  ------  --------------------
   L "沪陈太__" 230.0 "沪大场__" 230.0 "1"   0.042     71.671   0.001  33.952   80.122
   L "沪陈太__" 230.0 "沪大场__" 230.0 "2"   0.042     71.671   0.001  33.952   80.122
   L "沪陈太__" 230.0 "沪静宜_1" 230.0 "1"   7.985     79.832   0.235  32.292   80.135
   L "沪陈太__" 230.0 "沪静宜_2" 230.0 "2"   7.982     79.836   0.235  32.293   80.134
   L "沪陈太__" 230.0 "沪武威_Z" 230.0 "1"   0.095     97.045   0.003  33.963   80.115
   L "沪陈太__" 230.0 "沪武威_Z" 230.0 "2"   0.095     97.045   0.003  33.963   80.115
   L "沪陈太__" 230.0 "沪徐行12" 230.0 "1"   8.804     79.447   0.259  30.646   80.401
   L "沪陈太__" 230.0 "沪徐行12" 230.0 "2"   8.804     79.447   0.259  30.646   80.401
"沪崇电__"  115.0     B      0.0     2     30.000      5.571   1109.739      2.696     11.579      2.607     11.391      5.976 100000.000 "SM" 
.L/T       母线I            母线J      ID    支路电流(kA/deg)  百分数  开断短路电流(kA/deg)
.    ---------------- ---------------- ---  -----------------  ------  --------------------
   L "沪崇电__" 115.0 "沪中港__" 115.0 "1"   2.212     80.715   0.397   4.328   79.160
   L "沪崇电__" 115.0 "沪中港__" 115.0 "2"   2.212     80.715   0.397   4.328   79.160
   T "沪崇电__" 115.0 "沪崇电16"   6.3 "6"   1.147     73.773   0.206   4.475   82.824
"沪春申__"  230.0     B      0.0     2     50.000     33.959  13528.451      0.821      3.970      0.790      3.913      0.428      3.985 "SJ" 
.L/T       母线I            母线J      ID    支路电流(kA/deg)  百分数  开断短路电流(kA/deg)
.    ---------------- ---------------- ---  -----------------  ------  --------------------
   L "沪春申__" 230.0 "沪龙泉05" 230.0 "1"   0.048    143.300   0.001  33.918   78.246
   L "沪春申__" 230.0 "沪吴二__" 230.0 "1"   5.129     79.754   0.151  32.758   78.544
   L "沪春申__" 230.0 "沪吴二__" 230.0 "2"   5.144     79.608   0.151  32.753   78.551
   L "沪春申__" 230.0 "沪泗泾__" 230.0 "1"  11.891     77.176   0.350  29.453   78.512
   L "沪春申__" 230.0 "沪泗泾__" 230.0 "2"  11.722     77.144   0.345  29.546   78.616
"沪大场__"  230.0     B      0.0     2     50.000     30.078  11982.327      0.663      4.523      0.648      4.478      0.573      6.721 "SX" 
.L/T       母线I            母线J      ID    支路电流(kA/deg)  百分数  开断短路电流(kA/deg)
.    ---------------- ---------------- ---  -----------------  ------  --------------------
   L "沪大场__" 230.0 "沪陈太__" 230.0 "1"  14.998     80.025   0.499  26.991   79.937
   L "沪大场__" 230.0 "沪陈太__" 230.0 "2"  14.998     80.025   0.499  26.991   79.937
"沪大学_1"  230.0     B      0.0     2     50.000     25.496  10156.893      1.075      5.306      1.049      5.260      1.436      9.590 "SJ" 
.L/T       母线I            母线J      ID    支路电流(kA/deg)  百分数  开断短路电流(kA/deg)
.    ---------------- ---------------- ---  -----------------  ------  --------------------
   L "沪大学_1" 230.0 "沪文祥_Z" 230.0 "1"  25.485     78.115   1.000   0.303  144.158
"沪大学_2"  230.0     B      0.0     2     50.000     13.209   5262.219      1.318     10.381      1.299     10.344      1.638     15.140 "SJ" 
.L/T       母线I            母线J      ID    支路电流(kA/deg)  百分数  开断短路电流(kA/deg)
.    ---------------- ---------------- ---  -----------------  ------  --------------------
   L "沪大学_2" 230.0 "沪文祥_F" 230.0 "1"  13.198     75.930   0.999   0.301  148.283
"沪大众_F"  230.0     B      0.0     2     50.000     17.354   6913.443      0.916      7.820      0.902      7.778      0.738      9.999 "SX" 
.L/T       母线I            母线J      ID    支路电流(kA/deg)  百分数  开断短路电流(kA/deg)
.    ---------------- ---------------- ---  -----------------  ------  --------------------
   L "沪大众_F" 230.0 "沪大众_Z" 230.0 "1"   8.658     79.482   0.499  11.557   77.957
   L "沪大众_F" 230.0 "沪新潭__" 230.0 "2"   8.682     78.440   0.500  11.553   78.995
"沪大众_Z"  230.0     B      0.0     2     50.000     17.354   6913.495      0.916      7.820      0.902      7.778      0.740     10.000 "SX" 
.L/T       母线I            母线J      ID    支路电流(kA/deg)  百分数  开断短路电流(kA/deg)
.    ---------------- ---------------- ---  -----------------  ------  --------------------
   L "沪大众_Z" 230.0 "沪大众_F" 230.0 "1"   8.639     78.039   0.498  11.587   78.719
   L "沪大众_Z" 230.0 "沪新潭__" 230.0 "1"   8.702     79.590   0.501  11.536   79.149
"沪东昌71"  230.0     B      0.0     2     50.000     22.247   8862.598      1.096      6.092      1.065      6.024      1.791      7.216 "SL" 
.L/T       母线I            母线J      ID    支路电流(kA/deg)  百分数  开断短路电流(kA/deg)
.    ---------------- ---------------- ---  -----------------  ------  --------------------
   L "沪东昌71" 230.0 "沪源深_Z" 230.0 "1"  22.219     79.849   0.999   0.219  153.735
"沪东昌72"  230.0     B      0.0     2     50.000     27.287  10870.362      0.767      5.062      0.754      5.035      1.394      5.368 "SG" 
.L/T       母线I            母线J      ID    支路电流(kA/deg)  百分数  开断短路电流(kA/deg)
.    ---------------- ---------------- ---  -----------------  ------  --------------------
   L "沪东昌72" 230.0 "沪源深_F" 230.0 "1"  27.258     80.611   0.999   0.157  160.000
"沪东昌88"  230.0     B      0.0     2     50.000     27.319  10883.065      0.947      4.961      0.915      4.888      1.472      3.769 "SL" 
.L/T       母线I            母线J      ID    支路电流(kA/deg)  百分数  开断短路电流(kA/deg)
.    ---------------- ---------------- ---  -----------------  ------  --------------------
   L "沪东昌88" 230.0 "沪银山__" 230.0 "1"  27.263     80.670   0.998   0.268  160.035
"沪奉燃__"  230.0     B      0.0     2     50.000     25.771  10266.612      0.517      5.332      0.498      5.247      0.575      9.099 "SC" 
.L/T       母线I            母线J      ID    支路电流(kA/deg)  百分数  开断短路电流(kA/deg)
.    ---------------- ---------------- ---  -----------------  ------  --------------------
   L "沪奉燃__" 230.0 "沪惠南_1" 230.0 "1"   6.001     78.834   0.233  22.875   76.957
   L "沪奉燃__" 230.0 "沪惠南_1" 230.0 "2"   5.955     79.078   0.231  22.905   76.924
   L "沪奉燃__" 230.0 "沪康桥_2" 230.0 "1"   2.407     79.131   0.093  25.221   77.306
   L "沪奉燃__" 230.0 "沪康桥_2" 230.0 "2"   2.387     79.556   0.093  25.229   77.295
   T "沪奉燃__" 230.0 "沪奉燃11"  15.0 "1"   1.497     78.411   0.058  24.288   77.827
   T "沪奉燃__" 230.0 "沪奉燃12"   6.3 "2"   0.758     72.012   0.029  25.019   77.654
   T "沪奉燃__" 230.0 "沪奉燃21"  15.0 "1"   1.497     78.411   0.058  24.288   77.827
   T "沪奉燃__" 230.0 "沪奉燃22"   6.3 "2"   0.758     72.012   0.029  25.019   77.654
   T "沪奉燃__" 230.0 "沪奉燃31"  15.0 "1"   1.493     75.197   0.058  24.288   77.827
   T "沪奉燃__" 230.0 "沪奉燃32"   6.3 "2"   0.758     72.012   0.029  25.019   77.654
   T "沪奉燃__" 230.0 "沪奉燃41"  15.0 "1"   1.494     72.016   0.058  24.288   77.827
   T "沪奉燃__" 230.0 "沪奉燃42"   6.3 "2"   0.758     72.012   0.029  25.019   77.654
"沪复兴47"  230.0     B      0.0     2     50.000     11.273   4491.020      2.624     12.010      2.604     11.975      1.065     12.665 "SG" 
.L/T       母线I            母线J      ID    支路电流(kA/deg)  百分数  开断短路电流(kA/deg)
.    ---------------- ---------------- ---  -----------------  ------  --------------------
   L "沪复兴47" 230.0 "沪浦建_1" 230.0 "1"  11.245     78.215   0.998   0.208  156.226
"沪复兴48"  230.0     B      0.0     2     50.000     25.786  10272.584      0.851      5.347      0.838      5.321      1.364      8.487 "SQ" 
.L/T       母线I            母线J      ID    支路电流(kA/deg)  百分数  开断短路电流(kA/deg)
.    ---------------- ---------------- ---  -----------------  ------  --------------------
   L "沪复兴48" 230.0 "沪浦建_2" 230.0 "1"  25.758     81.067   0.999   0.126  168.638
"沪干练_F"  230.0     B      0.0     2     50.000     18.107   7213.274      0.833      7.602      0.815      7.566      0.397      6.026 "SJ" 
...